data_image0
_chemical_formula_structural       Si6Nb6Sc
_chemical_formula_sum              "Si6 Nb6 Sc1"
_cell_length_a       5.4669299126
_cell_length_b       5.466929912548926
_cell_length_c       22.8985004425
_cell_angle_alpha    90.0
_cell_angle_beta     90.0
_cell_angle_gamma    120.00000762925814

_space_group_name_H-M_alt    "P 1"
_space_group_IT_number       1

loop_
  _space_group_symop_operation_xyz
  'x, y, z'

loop_
  _atom_site_type_symbol
  _atom_site_label
  _atom_site_symmetry_multiplicity
  _atom_site_fract_x
  _atom_site_fract_y
  _atom_site_fract_z
  _atom_site_occupancy
  Si  Si1       1.0  0.0  0.0  0.270271987  1.0000
  Si  Si2       1.0  0.0  0.0  0.129728004  1.0000
  Si  Si3       1.0  0.666666687  0.333333343  0.0  1.0000
  Si  Si4       1.0  0.333333313  0.666666627  0.0  1.0000
  Si  Si5       1.0  0.666666687  0.333333343  0.200000003  1.0000
  Si  Si6       1.0  0.333333313  0.666666627  0.200000003  1.0000
  Nb  Nb1       1.0  0.5  0.0  0.09901200199999999  1.0000
  Nb  Nb2       1.0  0.5  0.0  0.300988019  1.0000
  Nb  Nb3       1.0  0.0  0.5  0.09901200199999999  1.0000
  Nb  Nb4       1.0  0.0  0.5  0.300988019  1.0000
  Nb  Nb5       1.0  0.5  0.5  0.09901200199999999  1.0000
  Nb  Nb6       1.0  0.5  0.5  0.300988019  1.0000
  Sc  Sc1       1.0  0.0  0.0  0.0  1.0000
